*WARNING DETAIL FILE

******************************************************************************

*DSSAT Cropping System Model Ver. 4.7.5.011 -develop  OCT 06, 2022 16:37:35

*RUN   1        : RI                        MZCER047 deleteme    1
 MODEL          : MZCER047 - Maize
 EXPERIMENT     : deleteme SN ainfed template. but everything should always be c
 DATA PATH      : ./
 TREATMENT  1   : RI                        MZCER047
  

 SOILDYN  YEAR DOY = 2001 277
 Soil photosynthesis factor (SLPF) = 0.92                                      

 SOILNI  YEAR DOY = 2001 277
 N content of residue was changed from value in initial conditions             
   section of experiment file to maintain allowable C:N ratio.                 
   - Previous crop code                 :    99                                
   - Recommended N content for surface residue (%):   1.1                      
   - Value read from file               : 0.600%                               
   - Value changed to                   : 0.880%                               
 To change allowable N content, modify SCN parameter                           
   in RESCH047.SDA file.                                                       

 MZ_GRO  YEAR DOY = 2002 159
   Crop mature on JD 159 due to slowed grain filling                           

******************************************************************************

*DSSAT Cropping System Model Ver. 4.7.5.011 -develop  OCT 06, 2022 16:37:35

*RUN   2        : RI                        MZCER047 deleteme    1
 MODEL          : MZCER047 - Maize
 EXPERIMENT     : deleteme SN ainfed template. but everything should always be c
 DATA PATH      : ./
 TREATMENT  1   : RI                        MZCER047
  

 NCHECK  YEAR DOY = 2003 144
 Negative soil N value on day 2003144 in layer   1                             
 Urea =    -0.180kg[N]/ha                                                      
 Value will be set to zero                                                     

******************************************************************************

*DSSAT Cropping System Model Ver. 4.7.5.011 -develop  OCT 06, 2022 16:37:35

*RUN   3        : RI                        MZCER047 deleteme    1
 MODEL          : MZCER047 - Maize
 EXPERIMENT     : deleteme SN ainfed template. but everything should always be c
 DATA PATH      : ./
 TREATMENT  1   : RI                        MZCER047
  

 MZ_GRO  YEAR DOY = 2004 162
   Crop mature on JD 162 due to slowed grain filling                           

******************************************************************************

*DSSAT Cropping System Model Ver. 4.7.5.011 -develop  OCT 06, 2022 16:37:35

*RUN   5        : RI                        MZCER047 deleteme    1
 MODEL          : MZCER047 - Maize
 EXPERIMENT     : deleteme SN ainfed template. but everything should always be c
 DATA PATH      : ./
 TREATMENT  1   : RI                        MZCER047
  

 NCHECK  YEAR DOY = 2006 144
 Negative soil N value on day 2006144 in layer   1                             
 Urea =    -0.133kg[N]/ha                                                      
 Value will be set to zero                                                     

******************************************************************************

*DSSAT Cropping System Model Ver. 4.7.5.011 -develop  OCT 06, 2022 16:37:35

*RUN   6        : RI                        MZCER047 deleteme    1
 MODEL          : MZCER047 - Maize
 EXPERIMENT     : deleteme SN ainfed template. but everything should always be c
 DATA PATH      : ./
 TREATMENT  1   : RI                        MZCER047
  

 MZ_GRO  YEAR DOY = 2007 162
   Crop mature on JD 162 due to slowed grain filling                           

******************************************************************************

*DSSAT Cropping System Model Ver. 4.7.5.011 -develop  OCT 06, 2022 16:37:35

*RUN   7        : RI                        MZCER047 deleteme    1
 MODEL          : MZCER047 - Maize
 EXPERIMENT     : deleteme SN ainfed template. but everything should always be c
 DATA PATH      : ./
 TREATMENT  1   : RI                        MZCER047
  

 MZ_GRO  YEAR DOY = 2008 152
   Crop mature on JD 152 due to slowed grain filling                           

******************************************************************************

*DSSAT Cropping System Model Ver. 4.7.5.011 -develop  OCT 06, 2022 16:37:35

*RUN   8        : RI                        MZCER047 deleteme    1
 MODEL          : MZCER047 - Maize
 EXPERIMENT     : deleteme SN ainfed template. but everything should always be c
 DATA PATH      : ./
 TREATMENT  1   : RI                        MZCER047
  

 NCHECK  YEAR DOY = 2009 144
 Negative soil N value on day 2009144 in layer   1                             
 Urea =    -0.224kg[N]/ha                                                      
 Value will be set to zero                                                     

 MZ_GRO  YEAR DOY = 2009 153
   Crop mature on JD 153 due to slowed grain filling                           

******************************************************************************

*DSSAT Cropping System Model Ver. 4.7.5.011 -develop  OCT 06, 2022 16:37:35

*RUN   9        : RI                        MZCER047 deleteme    1
 MODEL          : MZCER047 - Maize
 EXPERIMENT     : deleteme SN ainfed template. but everything should always be c
 DATA PATH      : ./
 TREATMENT  1   : RI                        MZCER047
  

 IPWTH   YEAR DOY = 2010   1
 Weather record not found for YR DOY: 2010   1                                 
   ./RRRR.WTH                                                                  
 Simulation will end.                                                          

 ENDRUN  YEAR DOY = 2010   1
 End of run        9                                                           
 Simulation ended with error code  10                                          
