*WARNING DETAIL FILE

******************************************************************************

*DSSAT Cropping System Model Ver. 4.7.5.011 -develop  SEP 12, 2022 19:03:17

*RUN   1        : RI                        MZCER047 deleteme    1
 MODEL          : MZCER047 - Maize
 EXPERIMENT     : deleteme SN ainfed template. but everything should always be c
 DATA PATH      : ./
 TREATMENT  1   : RI                        MZCER047
  

 SOILDYN  YEAR DOY = 2001 277
 Soil photosynthesis factor (SLPF) = 0.92                                      

 SOILNI  YEAR DOY = 2001 277
 N content of residue was changed from value in initial conditions             
   section of experiment file to maintain allowable C:N ratio.                 
   - Previous crop code                 :    99                                
   - Recommended N content for surface residue (%):   1.1                      
   - Value read from file               : 0.600%                               
   - Value changed to                   : 0.880%                               
 To change allowable N content, modify SCN parameter                           
   in RESCH047.SDA file.                                                       

******************************************************************************

*DSSAT Cropping System Model Ver. 4.7.5.011 -develop  SEP 12, 2022 19:03:17

*RUN   5        : RI                        MZCER047 deleteme    1
 MODEL          : MZCER047 - Maize
 EXPERIMENT     : deleteme SN ainfed template. but everything should always be c
 DATA PATH      : ./
 TREATMENT  1   : RI                        MZCER047
  

 IPWTH   YEAR DOY = 2006   2
 Duplicate record found in weather file.                                       
 Year 2006 DOY   1                                                             
 File: ./RRRR.WTH                                                              
 Record will be ignored.                                                       

******************************************************************************

*DSSAT Cropping System Model Ver. 4.7.5.011 -develop  SEP 12, 2022 19:03:17

*RUN   6        : RI                        MZCER047 deleteme    1
 MODEL          : MZCER047 - Maize
 EXPERIMENT     : deleteme SN ainfed template. but everything should always be c
 DATA PATH      : ./
 TREATMENT  1   : RI                        MZCER047
  

 IPWTH   YEAR DOY = 2007   2
 Duplicate record found in weather file.                                       
 Year 2007 DOY   1                                                             
 File: ./RRRR.WTH                                                              
 Record will be ignored.                                                       

******************************************************************************

*DSSAT Cropping System Model Ver. 4.7.5.011 -develop  SEP 12, 2022 19:03:17

*RUN   7        : RI                        MZCER047 deleteme    1
 MODEL          : MZCER047 - Maize
 EXPERIMENT     : deleteme SN ainfed template. but everything should always be c
 DATA PATH      : ./
 TREATMENT  1   : RI                        MZCER047
  

 IPWTH   YEAR DOY = 2008   2
 Duplicate record found in weather file.                                       
 Year 2008 DOY   1                                                             
 File: ./RRRR.WTH                                                              
 Record will be ignored.                                                       

******************************************************************************

*DSSAT Cropping System Model Ver. 4.7.5.011 -develop  SEP 12, 2022 19:03:17

*RUN   8        : RI                        MZCER047 deleteme    1
 MODEL          : MZCER047 - Maize
 EXPERIMENT     : deleteme SN ainfed template. but everything should always be c
 DATA PATH      : ./
 TREATMENT  1   : RI                        MZCER047
  

 IPWTH   YEAR DOY = 2009   2
 Duplicate record found in weather file.                                       
 Year 2009 DOY   1                                                             
 File: ./RRRR.WTH                                                              
 Record will be ignored.                                                       

******************************************************************************

*DSSAT Cropping System Model Ver. 4.7.5.011 -develop  SEP 12, 2022 19:03:17

*RUN   9        : RI                        MZCER047 deleteme    1
 MODEL          : MZCER047 - Maize
 EXPERIMENT     : deleteme SN ainfed template. but everything should always be c
 DATA PATH      : ./
 TREATMENT  1   : RI                        MZCER047
  

 IPWTH   YEAR DOY = 2010   2
 Duplicate record found in weather file.                                       
 Year 2009 DOY 367                                                             
 File: ./RRRR.WTH                                                              
 Record will be ignored.                                                       

 IPWTH   YEAR DOY = 2010   2
 Duplicate record found in weather file.                                       
 Year 2010 DOY   1                                                             
 File: ./RRRR.WTH                                                              
 Record will be ignored.                                                       

******************************************************************************

*DSSAT Cropping System Model Ver. 4.7.5.011 -develop  SEP 12, 2022 19:03:17

*RUN  10        : RI                        MZCER047 deleteme    1
 MODEL          : MZCER047 - Maize
 EXPERIMENT     : deleteme SN ainfed template. but everything should always be c
 DATA PATH      : ./
 TREATMENT  1   : RI                        MZCER047
  

 IPWTH   YEAR DOY = 2011   2
 Duplicate record found in weather file.                                       
 Year 2010 DOY 367                                                             
 File: ./RRRR.WTH                                                              
 Record will be ignored.                                                       

 IPWTH   YEAR DOY = 2011   2
 Duplicate record found in weather file.                                       
 Year 2011 DOY   1                                                             
 File: ./RRRR.WTH                                                              
 Record will be ignored.                                                       

******************************************************************************

*DSSAT Cropping System Model Ver. 4.7.5.011 -develop  SEP 12, 2022 19:03:17

*RUN  11        : RI                        MZCER047 deleteme    1
 MODEL          : MZCER047 - Maize
 EXPERIMENT     : deleteme SN ainfed template. but everything should always be c
 DATA PATH      : ./
 TREATMENT  1   : RI                        MZCER047
  

 IPWTH   YEAR DOY = 2012   2
 Duplicate record found in weather file.                                       
 Year 2011 DOY 367                                                             
 File: ./RRRR.WTH                                                              
 Record will be ignored.                                                       

 IPWTH   YEAR DOY = 2012   2
 Duplicate record found in weather file.                                       
 Year 2012 DOY   1                                                             
 File: ./RRRR.WTH                                                              
 Record will be ignored.                                                       

******************************************************************************

*DSSAT Cropping System Model Ver. 4.7.5.011 -develop  SEP 12, 2022 19:03:17

*RUN  12        : RI                        MZCER047 deleteme    1
 MODEL          : MZCER047 - Maize
 EXPERIMENT     : deleteme SN ainfed template. but everything should always be c
 DATA PATH      : ./
 TREATMENT  1   : RI                        MZCER047
  

 IPWTH   YEAR DOY = 2013   2
 Duplicate record found in weather file.                                       
 Year 2012 DOY 368                                                             
 File: ./RRRR.WTH                                                              
 Record will be ignored.                                                       

 IPWTH   YEAR DOY = 2013   2
 Duplicate record found in weather file.                                       
 Year 2013 DOY   1                                                             
 File: ./RRRR.WTH                                                              
 Record will be ignored.                                                       

******************************************************************************

*DSSAT Cropping System Model Ver. 4.7.5.011 -develop  SEP 12, 2022 19:03:17

*RUN  13        : RI                        MZCER047 deleteme    1
 MODEL          : MZCER047 - Maize
 EXPERIMENT     : deleteme SN ainfed template. but everything should always be c
 DATA PATH      : ./
 TREATMENT  1   : RI                        MZCER047
  

 IPWTH   YEAR DOY = 2014   2
 Duplicate record found in weather file.                                       
 Year 2013 DOY 367                                                             
 File: ./RRRR.WTH                                                              
 Record will be ignored.                                                       

 IPWTH   YEAR DOY = 2014   2
 Duplicate record found in weather file.                                       
 Year 2013 DOY 368                                                             
 File: ./RRRR.WTH                                                              
 Record will be ignored.                                                       

 IPWTH   YEAR DOY = 2014   2
 Duplicate record found in weather file.                                       
 Year 2014 DOY   1                                                             
 File: ./RRRR.WTH                                                              
 Record will be ignored.                                                       
